Casos/pglib_opf_case2737sop_k/datosNodos.csv
bus_i;type;Pd;Qd;Gs;Bs;area;Vm;Va;baseKV;zone;Vmax;Vmin
1;1;0.1;-1.05;0;4.11;1;1;0;138;1;1.1;0.9
2;2;0;0;0;0;1;1;0;20;1;1.1;0.9
3;1;-7.61;2.37;0;0;1;1;0;138;1;1.1;0.9
4;1;0.1;-0.34;0;0;1;1;0;138;1;1.1;0.9
5;1;0.1;-0.19;0;0;1;1;0;138;1;1.1;0.9
6;2;0;0;0;0;1;1;0;20;1;1.1;0.9
7;1;-19.32;6.4;0;0;1;1;0;138;1;1.1;0.9
8;1;-41.65;13.4;0;0;1;1;0;138;1;1.1;0.9
9;1;0.1;-0.24;0;0;1;1;0;138;1;1.1;0.9
10;2;-6.7;-8.98;0;0;1;1;0;138;1;1.1;0.9
11;1;96.28;-2.53;0;0;1;1;0;138;1;1.1;0.9
12;2;-10.41;-7.41;0;38.43;1;1;0;138;1;1.1;0.9
13;1;0.1;0.08;0;0;1;1;0;138;1;1.1;0.9
14;1;0.1;-2.08;0;0;1;1;0;138;1;1.1;0.9
15;2;0;0;0;0;1;1;0;20;1;1.1;0.9
16;2;0;0;0;0;1;1;0;20;1;1.1;0.9
17;2;0.1;-1.53;0;28.75;1;1;0;138;1;1.1;0.9
18;1;119.1;59.5;0;21.06;1;1;0;138;1;1.1;0.9
19;1;32.84;13.07;0;5.26;1;1;0;138;1;1.1;0.9
20;1;-0.54;-5.8;0;0;1;1;0;138;1;1.1;0.9
21;1;-10.71;2.92;0;0;1;1;0;138;1;1.1;0.9
22;1;0.1;-4.36;0;0;1;1;0;138;1;1.1;0.9
23;1;0.1;-2.42;0;0;1;1;0;138;1;1.1;0.9
24;2;0;0;0;0;1;1;0;20;1;1.1;0.9
25;1;0.1;-1.09;0;1.74;1;1;0;138;1;1.1;0.9
26;2;0;0;0;0;1;1;0;20;1;1.1;0.9
27;2;0;0;0;0;1;1;0;20;1;1.1;0.9
28;1;0.1;-0.38;0;0;1;1;0;138;1;1.1;0.9
29;1;160.2;89.9;0;0;1;1;0;138;1;1.1;0.9
30;2;160.2;88.7;0;-5.21;1;1;0;138;1;1.1;0.9
31;1;18.45;9.5;0;0;1;1;0;138;1;1.1;0.9
32;1;-15.12;4.75;0;0;1;1;0;138;1;1.1;0.9
33;1;0.1;-1.32;0;1.08;1;1;0;138;1;1.1;0.9
34;2;0;0;0;0;1;1;0;20;1;1.1;0.9
35;1;0.1;-3.06;0;0;1;1;0;138;1;1.1;0.9
36;1;0.1;-1.77;0;0;1;1;0;138;1;1.1;0.9
37;1;0.1;-0.36;0;0;1;1;0;138;1;1.1;0.9
38;1;0;0;0;0;1;1;0;138;1;1.1;0.9
39;1;0.1;-0.35;0;0;1;1;0;138;1;1.1;0.9
40;1;0.12;0.12;0;0;1;1;0;138;1;1.1;0.9
41;1;0.1;-1.35;0;0;1;1;0;138;1;1.1;0.9
42;1;-20.12;5.75;0;0;1;1;0;138;1;1.1;0.9
43;1;0.1;-3.79;0;0.58;1;1;0;138;1;1.1;0.9
44;2;0;0;0;0;1;1;0;20;1;1.1;0.9
45;2;0;0;0;0;1;1;0;20;1;1.1;0.9
46;1;0;0;0;0;1;1;0;138;1;1.1;0.9
47;1;0;0;0;0;2;1;0;138;2;1.1;0.9
48;1;27.05;-16.5;0;0;2;1;0;500;2;1.1;0.9
49;1;7.71;13.11;0;4.18;2;1;0;138;2;1.1;0.9
50;1;0;0;0;0.02;2;1;0;138;2;1.1;0.9
51;1;0.1;-0.4;0;0;2;1;0;138;2;1.1;0.9
52;1;0;0;0;0;2;1;0;138;2;1.1;0.9
53;1;14.8;-77.73;0;44.53;2;1;0;500;2;1.1;0.9
54;1;-15.8;-10.4;0;0;2;1;0;138;2;1.1;0.9
55;1;-15.92;4.9;0;0;2;1;0;138;2;1.1;0.9
56;1;69.38;39.78;0;19.14;2;1;0;138;2;1.1;0.9
57;1;27.05;7.96;0;0;2;1;0;138;2;1.1;0.9
58;1;0;0;0;0;2;1;0;138;2;1.1;0.9
59;1;24.13;11.14;0;0;2;1;0;138;2;1.1;0.9
60;1;0.1;-0.5;0;0;2;1;0;138;2;1.1;0.9
61;1;0.1;-1.78;0;6.93;2;1;0;138;2;1.1;0.9
62;1;0;0;0;0;2;1;0;138;2;1.1;0.9
63;1;0.1;-0.74;0;0;2;1;0;138;2;1.1;0.9
64;2;413;-361.88;0;0;2;1;0;500;2;1.1;0.9
65;2;0;0;0;0;2;1;0;20;2;1.1;0.9
66;1;0.1;-0.01;0;0;2;1;0;138;2;1.1;0.9
67;1;5.77;0.96;0;0;2;1;0;138;2;1.1;0.9
68;1;0.1;-4.87;0;0;2;1;0;138;2;1.1;0.9
69;1;0.1;-0.74;0;-19.16;2;1;0;138;2;1.1;0.9
70;1;0;0;0;0.02;2;1;0;138;2;1.1;0.9
71;1;0.1;-5.45;0;0;2;1;0;138;2;1.1;0.9
72;1;2.2;-3.95;0;0;2;1;0;138;2;1.1;0.9
73;1;18.52;7.09;0;8.15;2;1;0;138;2;1.1;0.9
74;1;0;0;0;0;2;1;0;138;2;1.1;0.9
75;1;29.03;17.98;0;3.66;2;1;0;138;2;1.1;0.9
76;1;0.1;-1.43;0;0;2;1;0;138;2;1.1;0.9
77;1;0.1;-0.87;0;2.04;2;1;0;138;2;1.1;0.9
78;1;8.71;4.56;0;4.24;2;1;0;138;2;1.1;0.9
79;1;-0.57;-3.27;0;0;2;1;0;138;2;1.1;0.9
80;1;0.1;-0.23;0;0;2;1;0;138;2;1.1;0.9
81;1;35.94;20.67;0;9.96;2;1;0;138;2;1.1;0.9
82;2;0;0;0;0;2;1;0;20;2;1.1;0.9
83;1;0.1;-2.37;0;0;2;1;0;138;2;1.1;0.9
84;1;0;0;0;0;2;1;0;138;2;1.1;0.9
85;1;0.1;-0.73;0;0;2;1;0;138;2;1.1;0.9
86;1;54.98;-9.33;0;10.65;2;1;0;138;2;1.1;0.9
87;1;0.1;-0.15;0;0;2;1;0;138;2;1.1;0.9
88;1;0.1;-1.55;0;0;2;1;0;138;2;1.1;0.9
89;2;0;0;0;-8.48;2;1;0;500;2;1.1;0.9
90;1;13.72;8.44;0;0;2;1;0;138;2;1.1;0.9
91;1;39.53;-28.65;0;0;2;1;0;138;2;1.1;0.9
92;1;-0.57;-1;0;0;2;1;0;138;2;1.1;0.9
93;1;-0.57;-4.29;0;0;2;1;0;138;2;1.1;0.9
94;1;0.1;-1.77;0;0;2;1;0;138;2;1.1;0.9
95;1;11.5;4.37;0;0;2;1;0;138;2;1.1;0.9
96;2;0;0;0;0;2;1;0;20;2;1.1;0.9
97;1;-6.11;1.53;0;0;3;1;0;138;3;1.1;0.9
98;1;0.1;-19.54;0;0;3;1;0;138;3;1.1;0.9
99;1;0.1;-26.52;0;0;3;1;0;138;3;1.1;0.9
100;1;0.1;-29.89;0;0;3;1;0;138;3;1.1;0.9
101;1;0.1;-22.93;0;0;3;1;0;138;3;1.1;0.9
102;1;-8.41;1.87;0;0;3;1;0;138;3;1.1;0.9
103;1;0.1;-15.6;0;0;3;1;0;138;3;1.1;0.9
104;1;-19.62;26.91;0;0;3;1;0;138;3;1.1;0.9
105;2;-41.25;13.02;0;16.09;3;1;0;138;3;1.1;0.9
106;1;0.1;-29.89;0;0;3;1;0;138;3;1.1;0.9
107;1;33.36;20;0;0;3;1;0;138;3;1.1;0.9
108;2;0;0;0;0;3;1;0;138;3;1.1;0.9
109;1;0.1;7.83;0;0;3;1;0;138;3;1.1;0.9
110;1;0.1;-1.89;0;0;3;1;0;138;3;1.1;0.9
111;1;13.77;18.27;0;0;3;1;0;138;3;1.1;0.9
112;1;34.14;21.1;0;0;3;1;0;138;3;1.1;0.9
113;1;0.1;-10.07;0;0;3;1;0;138;3;1.1;0.9
114;1;0;0;0;0;3;1;0;138;3;1.1;0.9
115;1;-13.32;19.44;0;0;3;1;0;138;3;1.1;0.9
116;1;0.1;0;0;0;3;1;0;138;3;1.1;0.9
117;2;0;0;0;0;3;1;0;138;3;1.1;0.9
118;1;0.1;-19.08;0;0;3;1;0;138;3;1.1;0.9
119;1;0;0;0;0;3;1;0;138;3;1.1;0.9
120;1;37.6;21.67;0;0;3;1;0;138;3;1.1;0.9
121;1;27.86;14.21;0;0;3;1;0;138;3;1.1;0.9
122;1;13.72;-10.96;0;0;3;1;0;138;3;1.1;0.9
123;1;0.1;-1.89;0;0;3;1;0;138;3;1.1;0.9
124;1;0.1;-4.32;0;0;3;1;0;138;3;1.1;0.9
125;1;-0.67;-3.25;0;0;3;1;0;138;3;1.1;0.9
126;2;0.1;-19.08;0;0;3;1;0;138;3;1.1;0.9
127;1;0;0;0;0;4;1;0;20;4;1.1;0.9
128;2;210.5;27.62;0;-49.77;4;1;0;500;4;1.1;0.9
129;2;0;0;0;0;4;1;0;20;4;1.1;0.9
130;2;0;0;0;0;4;1;0;20;4;1.1;0.9
131;2;0;0;0;0;4;1;0;20;4;1.1;0.9
132;2;0;0;0;0;4;1;0;20;4;1.1;0.9
133;2;0;0;0;0;4;1;0;20;4;1.1;0.9
134;2;0;0;0;0;4;1;0;20;4;1.1;0.9
135;1;229.05;127.87;0;0;4;1;0;500;4;1.1;0.9
136;2;0;0;0;0;4;1;0;20;4;1.1;0.9
137;1;17.32;-9.92;0;0;4;1;0;500;4;1.1;0.9
138;1;1.38;40.91;0;0;4;1;0;500;4;1.1;0.9
139;1;36.54;1.82;0;0;4;1;0;345;4;1.1;0.9
140;1;287.7;3.44;0;0;4;1;0;500;4;1.1;0.9
141;1;90.7;1.7;0;0;4;1;0;345;4;1.1;0.9
142;2;0;0;0;0;4;1;0;500;4;1.1;0.9
143;2;303.04;131.03;0;0;4;1;0;500;4;1.1;0.9
144;1;300.2;-33.04;0;0;4;1;0;500;4;1.1;0.9
145;1;207.95;-48.04;0;0;4;1;0;500;4;1.1;0.9
146;2;34.44;-34.16;0;16.08;4;1;0;500;4;1.1;0.9
147;1;25.54;-11.15;0;0;4;1;0;345;4;1.1;0.9
148;1;0;0;0;0;4;1;0;20;4;1.1;0.9
149;1;30.93;0.69;0;5.66;4;1;0;345;4;1.1;0.9
150;2;14.32;-83.22;0;-23.72;4;1;0;500;4;1.1;0.9
151;2;189.4;22.18;0;0;4;1;0;345;4;1.1;0.9
152;1;1.72;56.78;0;0;4;1;0;500;4;1.1;0.9
153;2;0;0;0;0;4;1;0;20;4;1.1;0.9
154;1;104.6;39.28;0;0;4;1;0;345;4;1.1;0.9
155;1;493.4;-4.59;0;0;4;1;0;500;4;1.1;0.9
156;1;69.78;13.96;0;0;4;1;0;345;4;1.1;0.9
157;2;0;0;0;0;4;1;0;20;4;1.1;0.9
158;1;633.63;11.09;0;0;4;1;0;345;4;1.1;0.9
159;1;0;0;0;0;4;1;0;20;4;1.1;0.9
160;1;694.34;45.83;0;0;4;1;0;345;4;1.1;0.9
161;1;0;0;0;0;4;1;0;20;4;1.1;0.9
162;1;0;0;0;0;4;1;0;20;4;1.1;0.9
163;2;0;0;0;0;4;1;0;20;4;1.1;0.9
164;1;0;0;0;0;4;1;0;20;4;1.1;0.9
165;2;0;0;0;0;4;1;0;20;4;1.1;0.9
166;2;0;0;0;0;4;1;0;20;4;1.1;0.9
167;2;0;0;0;0;4;1;0;20;4;1.1;0.9
168;2;0;0;0;0;4;1;0;20;4;1.1;0.9
169;2;0;0;0;0;4;1;0;20;4;1.1;0.9
170;1;-24.49;95.16;0;11.38;4;1;0;500;4;1.1;0.9
171;1;179.74;-1.65;0;0;4;1;0;345;4;1.1;0.9
172;1;80.59;-11.62;0;0;4;1;0;345;4;1.1;0.9
173;1;366.6;-3.38;0;0;4;1;0;500;4;1.1;0.9
174;1;72.28;5.18;0;0;4;1;0;345;4;1.1;0.9
175;1;31.59;-20.02;0;0;4;1;0;500;4;1.1;0.9
176;2;0;0;0;0;4;1;0;20;4;1.1;0.9
177;1;449.54;10.66;0;0;4;1;0;345;4;1.1;0.9
178;1;19.12;-14.57;0;0;4;1;0;500;4;1.1;0.9
179;2;0;0;0;0;4;1;0;20;4;1.1;0.9
180;2;0;0;0;0;4;1;0;20;4;1.1;0.9
181;1;24.33;-74.57;0;0;4;1;0;500;4;1.1;0.9
182;2;0;0;0;0;4;1;0;20;4;1.1;0.9
183;1;0;0;0;0;4;1;0;20;4;1.1;0.9
184;1;0;0;0;0;4;1;0;20;4;1.1;0.9
185;2;0;0;0;0;4;1;0;20;4;1.1;0.9
186;1;67.47;4.64;0;0;4;1;0;345;4;1.1;0.9
187;2;0;0;0;0;4;1;0;20;4;1.1;0.9
188;2;0;0;0;0;4;1;0;20;4;1.1;0.9
189;2;0;0;0;0;4;1;0;20;4;1.1;0.9
190;1;0;0;0;0;4;1;0;20;4;1.1;0.9
191;1;0;0;0;0;4;1;0;20;4;1.1;0.9
192;1;0;0;0;0;4;1;0;20;4;1.1;0.9
193;1;142;10.03;0;0;4;1;0;345;4;1.1;0.9
194;2;0;0;0;0;4;1;0;500;4;1.1;0.9
195;1;186.8;12.96;0;0;4;1;0;345;4;1.1;0.9
196;1;0;0;0;0;4;1;0;20;4;1.1;0.9
197;1;0;0;0;0;4;1;0;20;4;1.1;0.9
198;1;0;0;0;0;4;1;0;20;4;1.1;0.9
199;1;0;0;0;0;4;1;0;20;4;1.1;0.9
200;1;0;0;0;0;4;1;0;20;4;1.1;0.9
...
